[Format]      =  4.0
[Frequency]   =  60
[Precision]   =  1e-008
[MinAngle]    =  20
[DoSmartMesh] =  1
[Depth]       =  30
[LengthUnits] =  centimeters
[ProblemType] =  planar
[Coordinates] =  cartesian
[ACSolver]    =  0
[PrevType]    =  0
[PrevSoln]    =  ""
[Comment]     =  "Example Induction Motor\n50 Hz, 2 HP, 220 V"
[PointProps]   = 0
[BdryProps]   = 5
  <BeginBdry>
    <BdryName> = "A=0"
    <BdryType> = 0
    <A_0> = 0
    <A_1> = 0
    <A_2> = 0
    <Phi> = 0
    <c0> = 0
    <c0i> = 0
    <c1> = 0
    <c1i> = 0
    <Mu_ssd> = 0
    <Sigma_ssd> = 0
    <innerangle> = 0
    <outerangle> = 0
  <EndBdry>
  <BeginBdry>
    <BdryName> = "apbc1"
    <BdryType> = 5
    <A_0> = 0
    <A_1> = 0
    <A_2> = 0
    <Phi> = 0
    <c0> = 0
    <c0i> = 0
    <c1> = 0
    <c1i> = 0
    <Mu_ssd> = 0
    <Sigma_ssd> = 0
    <innerangle> = 0
    <outerangle> = 0
  <EndBdry>
  <BeginBdry>
    <BdryName> = "apbc2"
    <BdryType> = 5
    <A_0> = 0
    <A_1> = 0
    <A_2> = 0
    <Phi> = 0
    <c0> = 0
    <c0i> = 0
    <c1> = 0
    <c1i> = 0
    <Mu_ssd> = 0
    <Sigma_ssd> = 0
    <innerangle> = 0
    <outerangle> = 0
  <EndBdry>
  <BeginBdry>
    <BdryName> = "apbc3"
    <BdryType> = 5
    <A_0> = 0
    <A_1> = 0
    <A_2> = 0
    <Phi> = 0
    <c0> = 0
    <c0i> = 0
    <c1> = 0
    <c1i> = 0
    <Mu_ssd> = 0
    <Sigma_ssd> = 0
    <innerangle> = 0
    <outerangle> = 0
  <EndBdry>
  <BeginBdry>
    <BdryName> = "apbc4"
    <BdryType> = 5
    <A_0> = 0
    <A_1> = 0
    <A_2> = 0
    <Phi> = 0
    <c0> = 0
    <c0i> = 0
    <c1> = 0
    <c1i> = 0
    <Mu_ssd> = 0
    <Sigma_ssd> = 0
    <innerangle> = 0
    <outerangle> = 0
  <EndBdry>
[BlockProps]  = 6
  <BeginBlock>
    <BlockName> = "Silicon Core Iron"
    <Mu_x> = 7000
    <Mu_y> = 7000
    <H_c> = 0
    <H_cAngle> = 0
    <J_re> = 0
    <J_im> = 0
    <Sigma> = 0
    <d_lam> = 0
    <Phi_h> = 0
    <Phi_hx> = 0
    <Phi_hy> = 0
    <LamType> = 0
    <LamFill> = 1
    <NStrands> = 0
    <WireD> = 0
    <BHPoints> = 0
  <EndBlock>
  <BeginBlock>
    <BlockName> = "Aluminum"
    <Mu_x> = 1
    <Mu_y> = 1
    <H_c> = 0
    <H_cAngle> = 0
    <J_re> = 0
    <J_im> = 0
    <Sigma> = 34.450000000000003
    <d_lam> = 0
    <Phi_h> = 0
    <Phi_hx> = 0
    <Phi_hy> = 0
    <LamType> = 0
    <LamFill> = 1
    <NStrands> = 0
    <WireD> = 0
    <BHPoints> = 0
  <EndBlock>
  <BeginBlock>
    <BlockName> = "Air"
    <Mu_x> = 1
    <Mu_y> = 1
    <H_c> = 0
    <H_cAngle> = 0
    <J_re> = 0
    <J_im> = 0
    <Sigma> = 0
    <d_lam> = 0
    <Phi_h> = 0
    <Phi_hx> = 0
    <Phi_hy> = 0
    <LamType> = 0
    <LamFill> = 1
    <NStrands> = 0
    <WireD> = 0
    <BHPoints> = 0
  <EndBlock>
  <BeginBlock>
    <BlockName> = "Stator Winding"
    <Mu_x> = 1
    <Mu_y> = 1
    <H_c> = 0
    <H_cAngle> = 0
    <J_re> = 0
    <J_im> = 0
    <Sigma> = 0
    <d_lam> = 0
    <Phi_h> = 0
    <Phi_hx> = 0
    <Phi_hy> = 0
    <LamType> = 0
    <LamFill> = 1
    <NStrands> = 0
    <WireD> = 0
    <BHPoints> = 0
  <EndBlock>
  <BeginBlock>
    <BlockName> = "Copper"
    <Mu_x> = 1
    <Mu_y> = 1
    <H_c> = 0
    <H_cAngle> = 0
    <J_re> = 0
    <J_im> = 0
    <Sigma> = 58
    <d_lam> = 0
    <Phi_h> = 0
    <Phi_hx> = 0
    <Phi_hy> = 0
    <LamType> = 0
    <LamFill> = 1
    <NStrands> = 0
    <WireD> = 0
    <BHPoints> = 0
  <EndBlock>
  <BeginBlock>
    <BlockName> = "M-45 Steel"
    <Mu_x> = 4689
    <Mu_y> = 4689
    <H_c> = 0
    <H_cAngle> = 0
    <J_re> = 0
    <J_im> = 0
    <Sigma> = 2.8999999999999999
    <d_lam> = 0.63500000000000001
    <Phi_h> = 0
    <Phi_hx> = 0
    <Phi_hy> = 0
    <LamType> = 0
    <LamFill> = 0.97999999999999998
    <NStrands> = 0
    <WireD> = 0
    <BHPoints> = 47
      0	0
      0.050000000000000003	19.965330000000002
      0.10000000000000001	29.906288
      0.14999999999999999	36.398771000000004
      0.20000000000000001	41.371668999999997
      0.25	45.590262000000003
      0.29999999999999999	49.424858999999998
      0.34999999999999998	53.082279999999997
      0.40000000000000002	56.692664000000001
      0.45000000000000001	60.347374000000002
      0.5	64.117637000000002
      0.55000000000000004	68.064755000000005
      0.59999999999999998	72.246370999999996
      0.65000000000000002	76.720885999999993
      0.69999999999999996	81.551123000000004
      0.75	86.807958999999997
      0.80000000000000004	92.574503000000007
      0.84999999999999998	98.951520000000002
      0.90000000000000002	106.06504700000001
      0.94999999999999996	114.077777
      1	123.20691100000001
      1.05	133.75338500000001
      1.1000000000000001	146.15173799999999
      1.1499999999999999	161.05866800000001
      1.2	179.51663400000001
      1.25	203.267945
      1.3	235.37974800000001
      1.3500000000000001	281.52494799999999
      1.3999999999999999	352.64841200000001
      1.45	470.42617899999999
      1.5	677.45154100000002
      1.55	1051.0680359999999
      1.6000000000000001	1703.275165
      1.6499999999999999	2726.5179589999998
      1.7	4137.9810520000001
      1.75	5832.6197039999997
      1.8	7939.5529399999996
      1.8500000000000001	10565.294335000001
      1.8999999999999999	13843.912965
      1.95	17970.359698
      2	23423.776431999999
      2.0499999999999998	32234.325959999998
      2.1000000000000001	51366.778966999998
      2.1499999999999999	84577.843500999996
      2.2000000000000002	121162.49332199999
      2.25	160127.812767
      2.2999999999999998	202470.28224500001
  <EndBlock>
[CircuitProps]  = 3
  <BeginCircuit>
    <CircuitName> = "A"
    <TotalAmps_re> = 10
    <TotalAmps_im> = 0
    <CircuitType> = 1
  <EndCircuit>
  <BeginCircuit>
    <CircuitName> = "B"
    <TotalAmps_re> = -5
    <TotalAmps_im> = 8.6602540378443855
    <CircuitType> = 1
  <EndCircuit>
  <BeginCircuit>
    <CircuitName> = "C"
    <TotalAmps_re> = -5
    <TotalAmps_im> = -8.6602540378443909
    <CircuitType> = 1
  <EndCircuit>
[NumPoints] = 664
7.4999989999999919	0	0	2
1.4423074999999939	0	0	1
4.5576916999999941	0.057692300000000106	0	0
4.8749993499999951	0.21923074000000004	0	0
6.1153837999999947	0.21923073999999995	0	0
4.6495583811196388	0.29095829832291237	0	0
4.7228230277335452	0.29736812433886217	0	0
6.2070584451175828	0.54304724779063773	0	0
6.2217891176144882	0.33438754518133795	0	0
4.762868137319896	1.0624348857055737	0	0
5.9844083603956797	1.2778253850544714	0	0
4.6294455200903553	0.52084935184578618	0	0
4.7027101667042617	0.52725917786173582	0	0
4.8390061742990422	0.63063462080436639	0	0
6.0605463973748259	0.84602512015326414	0	0
4.5283967635286668	1.0939253278290721	0	0
4.5994353009289091	1.1129600465569556	0	0
6.0692003727784751	1.4097097891069972	0	0
6.0184601151858095	1.6126415275429611	0	0
6.185331948488991	0.75109489509639382	0	0
4.5060195864149026	1.8733574850269761	0	0
5.6715997010174899	2.2975939523949074	0	0
4.4686692995455939	1.3168312580211397	0	0
4.539707836945837	1.3358659767490231	0	0
4.6559822446472863	1.461338467772108	0	0
5.8215623592498744	1.885574935140039	0	0
4.2696421017572046	1.8636539898020714	0	0
4.3362960599321108	1.8947352409453733	0	0
5.7322020457791627	2.4421987144382133	0	0
5.6469939201418828	2.6332365105168791	0	0
5.9609365980376419	1.8137556970589774	0	0
4.1122579105326205	2.6273590651304617	0	0
5.1864623546918089	3.2475512901304611	0	0
4.1721148235899124	2.0728019127702888	0	0
4.2387687817648194	2.1038831639135913	0	0
4.3314886505326218	2.2476402848695387	0	0
5.4056930946918094	2.867832509869539	0	0
3.8811565252669999	2.5767564683493558	0	0
3.941400657425957	2.6189398638199597	0	0
5.2210336602530445	3.4004826676434021	0	0
5.1039466723512446	3.5738219346007094	0	0
5.5554212054343823	2.8213064499710918	0	0
3.5935473589417128	3.3015296695477945	0	0
4.5437369741954026	4.0988334252556475	0	0
3.7487927499114173	2.7657915302882907	0	0
3.8090368820703748	2.8079749257588951	0	0
3.875384965610535	2.9656486892720717	0	0
4.8255745808642256	3.7629524449799243	0	0
3.3747439717165215	3.2115655055075329	0	0
3.4267477903888817	3.2635693241798927	0	0
4.5512268089306449	4.2554446757195032	0	0
4.4058185876428482	4.4058185876428544	0	0
4.9811071506827691	3.743133234050783	0	0
2.9656486892720664	3.8753849656105412	0	0
3.762952444979919	4.8255745808642319	0	0
3.2115655055075272	3.3747439717165277	0	0
3.2635693241798873	3.4267477903888879	0	0
3.3015296695477887	3.5935473589417191	0	0
4.0988334252556422	4.5437369741954097	0	0
2.7657915302882849	3.7487927499114235	0	0
2.8079749257588893	3.809036882070381	0	0
3.7431332340507772	4.9811071506827753	0	0
3.5738219346007041	5.1039466723512508	0	0
4.2554446757194979	4.5512268089306511	0	0
2.2476402848695329	4.3314886505326271	0	0
2.8678325098695341	5.4056930946918156	0	0
2.57675646834935	3.8811565252670057	0	0
2.6189398638199544	3.9414006574259632	0	0
2.6273590651304559	4.1122579105326258	0	0
3.2475512901304562	5.1864623546918152	0	0
2.0728019127702839	4.1721148235899177	0	0
2.1038831639135855	4.2387687817648256	0	0
2.8213064499710865	5.5554212054343877	0	0
2.6332365105168738	5.6469939201418882	0	0
3.4004826676433972	5.2210336602530498	0	0
1.4613384677721022	4.6559822446472925	0	0
1.885574935140033	5.8215623592498797	0	0
1.863653989802065	4.2696421017572099	0	0
1.8947352409453675	4.336296059932117	0	0
1.8733574850269703	4.5060195864149089	0	0
2.2975939523949012	5.6715997010174952	0	0
1.3168312580211339	4.4686692995456001	0	0
1.3358659767490171	4.5397078369458432	0	0
1.8137556970589721	5.9609365980376472	0	0
1.6126415275429558	6.0184601151858157	0	0
2.4421987144382076	5.7322020457791689	0	0
0.6306346208043605	4.8390061742990484	0	0
0.84602512015325848	6.0605463973748321	0	0
1.0939253278290664	4.528396763528673	0	0
1.1129600465569496	4.5994353009289153	0	0
1.0624348857055677	4.7628681373199022	0	0
1.2778253850544656	5.9844083603956859	0	0
0.5208493518457803	4.6294455200903615	0	0
0.52725917786172993	4.7027101667042679	0	0
0.75109489509638816	6.1853319484889973	0	0
0.54304724779063207	6.207058445117589	0	0
1.4097097891069914	6.0692003727784813	0	0
0.29095829832290637	4.6495583811196459	0	0
0.29736812433885618	4.7228230277335523	0	0
0.21923073999999407	4.8749993500000013	0	0
0.21923073999999404	6.1153838000000009	0	0
0.33438754518133201	6.2217891176144944	0	0
4.4562585979275084	0.95793598018097514	0	0
4.6150234090388587	0.057692299999999953	0	0
4.5121528813225851	0.97069348562161495	0	0
4.4305831089713328	1.0704276473569099	0	0
4.4864773923664085	1.0831851527975498	0	0
4.1313700820395391	1.9255293503233739	0	0
4.1830241670271953	1.9504046466111564	0	0
4.081306580354954	2.0294872827587471	0	0
4.1329606653426119	2.0543625790465296	0	0
3.5993174191390036	2.7965686385302049	0	0
3.6441411542092856	2.8323143744390693	0	0
3.527376297747455	2.8867799514021852	0	0
3.5722000328177357	2.9225256873110497	0	0
2.8867799514021786	3.5273762977474608	0	0
2.9225256873110435	3.5722000328177428	0	0
2.7965686385301978	3.5993174191390098	0	0
2.8323143744390626	3.6441411542092919	0	0
2.02948728275874	4.0813065803549602	0	0
2.0543625790465234	4.1329606653426181	0	0
1.9255293503233664	4.1313700820395445	0	0
1.9504046466111489	4.1830241670272024	0	0
1.0704276473569028	4.4305831089713399	0	0
1.0831851527975425	4.4864773923664156	0	0
0.95793598018096804	4.4562585979275147	0	0
0.97069348562160784	4.5121528813225913	0	0
0.057692299999992896	4.5576917000000003	0	0
0.057692299999992792	4.6150234090388658	0	0
-6.2855704641151521e-015	7.4999989999999999	0	0
4.5576916999999959	0	0	0
4.6586532249999939	0	0	0
-6.2855704641151521e-015	4.5576917000000012	0	0
-6.2855704641151521e-015	1.4423075000000001	0	0
-6.2855704641151521e-015	4.6586532250000001	0	0
4.2712939716751306	0.73671159973014044	0	0
4.3281374673484452	0.23221162197408984	0	0
2.8839190328459914	0.58039198662852454	0	0
2.9407625285193064	0.075892008872473965	0	0
2.6824637946686267	1.2075727044140909	0	0
4.000269960891643	1.6686930255841641	0	0
2.850143911457744	0.72837046215117562	0	0
4.1679500776807608	1.1894907833212491	0	0
2.3464986208332395	1.7742006844158513	0	0
3.5286557105963778	2.5169992152801388	0	0
2.6166071775111628	1.3443253790474374	0	0
3.7987642672743007	2.0871239099117247	0	0
1.8928702080243314	2.2518628336841258	0	0
2.880099928588749	3.2390925542485434	0	0
2.2518628336841195	1.8928702080243376	0	0
3.2390925542485371	2.8800999285887556	0	0
1.3443253790474308	2.6166071775111686	0	0
2.087123909911718	3.7987642672743069	0	0
1.7742006844158447	2.3464986208332457	0	0
2.5169992152801322	3.5286557105963845	0	0
0.72837046215116896	2.8501439114577503	0	0
1.1894907833212418	4.167950077680767	0	0
1.2075727044140838	2.6824637946686329	0	0
1.668693025584157	4.0002699608916501	0	0
0.07589200887246722	2.9407625285193122	0	0
0.23221162197408282	4.3281374673484523	0	0
0.58039198662851765	2.883919032845998	0	0
0.73671159973013334	4.2712939716751368	0	0
2.8846149999999939	0	0	0
-6.2855704641151521e-015	2.8846150000000002	0	0
2.8122916793983648	0.6418872239043939	0	0
2.5989483108843303	1.2515875421145952	0	0
2.2552828217995096	1.7985280347887309	0	0
1.7985280347887243	2.2552828217995162	0	0
1.2515875421145881	2.598948310884337	0	0
0.64188722390438713	2.8122916793983714	0	0
-0.057692300000006108	4.5576917000000003	0	0
-0.21923074000000603	4.8749993500000013	0	0
-0.21923074000000584	6.1153838000000009	0	0
-0.29095829832291836	4.6495583811196459	0	0
-0.29736812433886811	4.7228230277335523	0	0
-0.54304724779064362	6.207058445117589	0	0
-0.33438754518134389	6.2217891176144944	0	0
-1.0624348857055796	4.7628681373199022	0	0
-1.2778253850544772	5.9844083603956859	0	0
-0.52084935184579217	4.6294455200903615	0	0
-0.52725917786174181	4.7027101667042679	0	0
-0.63063462080437238	4.8390061742990484	0	0
-0.84602512015327003	6.0605463973748321	0	0
-1.0939253278290784	4.528396763528673	0	0
-1.1129600465569616	4.5994353009289153	0	0
-1.409709789107003	6.0692003727784813	0	0
-1.6126415275429669	6.0184601151858157	0	0
-0.75109489509639971	6.1853319484889973	0	0
-1.8733574850269821	4.5060195864149089	0	0
-2.2975939523949132	5.6715997010174961	0	0
-1.3168312580211459	4.4686692995456001	0	0
-1.3358659767490291	4.5397078369458432	0	0
-1.4613384677721142	4.6559822446472925	0	0
-1.8855749351400448	5.8215623592498806	0	0
-1.8636539898020772	4.2696421017572108	0	0
-1.8947352409453793	4.336296059932117	0	0
-2.4421987144382191	5.7322020457791698	0	0
-2.6332365105168849	5.6469939201418891	0	0
-1.8137556970589834	5.9609365980376481	0	0
-2.6273590651304675	4.1122579105326267	0	0
-3.2475512901304668	5.1864623546918152	0	0
-2.0728019127702946	4.1721148235899186	0	0
-2.1038831639135971	4.2387687817648256	0	0
-2.2476402848695445	4.331488650532628	0	0
-2.8678325098695447	5.4056930946918156	0	0
-2.5767564683493616	3.8811565252670066	0	0
-2.6189398638199659	3.9414006574259632	0	0
-3.4004826676434079	5.2210336602530507	0	0
-3.5738219346007152	5.1039466723512508	0	0
-2.8213064499710976	5.5554212054343886	0	0
-3.3015296695478002	3.5935473589417191	0	0
-4.0988334252556538	4.5437369741954097	0	0
-2.7657915302882969	3.7487927499114235	0	0
-2.8079749257589008	3.809036882070381	0	0
-2.9656486892720775	3.8753849656105412	0	0
-3.7629524449799305	4.8255745808642319	0	0
-3.2115655055075387	3.3747439717165277	0	0
-3.2635693241798984	3.4267477903888879	0	0
-4.2554446757195095	4.5512268089306511	0	0
-4.4058185876428606	4.4058185876428544	0	0
-3.7431332340507892	4.9811071506827753	0	0
-3.8753849656105475	2.965648689272073	0	0
-4.8255745808642381	3.7629524449799252	0	0
-3.374743971716534	3.2115655055075338	0	0
-3.4267477903888941	3.263569324179894	0	0
-3.5935473589417253	3.3015296695477958	0	0
-4.5437369741954159	4.0988334252556484	0	0
-3.7487927499114297	2.7657915302882916	0	0
-3.8090368820703877	2.807974925758896	0	0
-4.9811071506827815	3.7431332340507835	0	0
-5.103946672351257	3.5738219346007107	0	0
-4.5512268089306573	4.2554446757195041	0	0
-4.3314886505326333	2.24764028486954	0	0
-5.4056930946918227	2.8678325098695407	0	0
-3.8811565252670119	2.5767564683493567	0	0
-3.9414006574259695	2.618939863819961	0	0
-4.112257910532632	2.6273590651304626	0	0
-5.1864623546918214	3.2475512901304628	0	0
-4.1721148235899239	2.0728019127702906	0	0
-4.2387687817648319	2.1038831639135926	0	0
-5.5554212054343939	2.8213064499710931	0	0
-5.6469939201418944	2.6332365105168805	0	0
-5.221033660253056	3.4004826676434039	0	0
-4.6559822446472987	1.4613384677721086	0	0
-5.821562359249886	1.8855749351400397	0	0
-4.2696421017572161	1.8636539898020716	0	0
-4.3362960599321232	1.8947352409453742	0	0
-4.5060195864149151	1.873357485026977	0	0
-5.6715997010175023	2.2975939523949083	0	0
-4.4686692995456063	1.3168312580211403	0	0
-4.5397078369458495	1.3358659767490237	0	0
-5.9609365980376534	1.8137556970589788	0	0
-6.0184601151858219	1.6126415275429624	0	0
-5.7322020457791751	2.4421987144382147	0	0
-4.8390061742990547	0.63063462080436716	0	0
-6.0605463973748384	0.84602512015326525	0	0
-4.5283967635286793	1.0939253278290728	0	0
-4.5994353009289224	1.112960046556956	0	0
-4.7628681373199093	1.0624348857055743	0	0
-5.9844083603956921	1.2778253850544723	0	0
-4.6294455200903677	0.52084935184578685	0	0
-4.7027101667042741	0.52725917786173659	0	0
-6.1853319484890035	0.75109489509639482	0	0
-6.2070584451175952	0.54304724779063873	0	0
-6.0692003727784876	1.4097097891069981	0	0
-4.6495583811196521	0.29095829832291298	0	0
-4.7228230277335586	0.29736812433886278	0	0
-4.8749993500000075	0.21923074000000067	0	0
-6.1153838000000071	0.2192307400000007	0	0
-6.2217891176145006	0.33438754518133867	0	0
-0.95793598018098114	4.4562585979275147	0	0
-0.057692300000005955	4.6150234090388658	0	0
-0.97069348562162105	4.5121528813225913	0	0
-1.0704276473569159	4.430583108971339	0	0
-1.0831851527975558	4.4864773923664147	0	0
-1.9255293503233799	4.1313700820395454	0	0
-1.9504046466111624	4.1830241670272024	0	0
-2.0294872827587529	4.0813065803549602	0	0
-2.0543625790465354	4.132960665342619	0	0
-2.7965686385302106	3.5993174191390098	0	0
-2.8323143744390755	3.6441411542092919	0	0
-2.886779951402191	3.5273762977474612	0	0
-2.9225256873110554	3.5722000328177419	0	0
-3.527376297747467	2.8867799514021852	0	0
-3.572200032817749	2.9225256873110501	0	0
-3.599317419139016	2.7965686385302044	0	0
-3.6441411542092981	2.8323143744390693	0	0
-4.0813065803549664	2.0294872827587467	0	0
-4.1329606653426243	2.0543625790465301	0	0
-4.1313700820395507	1.9255293503233732	0	0
-4.1830241670272086	1.9504046466111555	0	0
-4.4305831089713461	1.0704276473569092	0	0
-4.4864773923664218	1.0831851527975489	0	0
-4.4562585979275209	0.95793598018097448	0	0
-4.5121528813225975	0.97069348562161439	0	0
-4.5576917000000066	0.057692299999999461	0	0
-4.615023409038872	0.057692299999999364	0	0
-7.499999000000007	4.5924248844791754e-016	0	0
-4.5576917000000075	2.7907812759527303e-016	0	0
-1.4423075000000063	8.8315863163061063e-017	0	0
-4.6586532250000063	2.8526023801668721e-016	0	0
-0.73671159973014633	4.2712939716751377	0	0
-0.23221162197409587	4.3281374673484514	0	0
-0.58039198662853053	2.8839190328459976	0	0
-0.075892008872480071	2.9407625285193126	0	0
-1.2075727044140969	2.6824637946686329	0	0
-1.6686930255841701	4.0002699608916492	0	0
-0.72837046215118173	2.8501439114577503	0	0
-1.1894907833212554	4.167950077680767	0	0
-1.7742006844158573	2.3464986208332457	0	0
-2.5169992152801446	3.5286557105963841	0	0
-1.3443253790474436	2.616607177511169	0	0
-2.0871239099117305	3.7987642672743069	0	0
-2.2518628336841324	1.8928702080243376	0	0
-3.23909255424855	2.8800999285887552	0	0
-1.892870208024344	2.2518628336841258	0	0
-2.8800999285887618	3.2390925542485434	0	0
-2.6166071775111748	1.3443253790474372	0	0
-3.7987642672743132	2.0871239099117247	0	0
-2.3464986208332519	1.7742006844158511	0	0
-3.5286557105963907	2.5169992152801388	0	0
-2.8501439114577565	0.7283704621511754	0	0
-4.1679500776807732	1.1894907833212485	0	0
-2.6824637946686392	1.2075727044140903	0	0
-4.0002699608916563	1.6686930255841634	0	0
-2.9407625285193184	0.075892008872473687	0	0
-4.3281374673484585	0.23221162197408937	0	0
-2.8839190328460043	0.5803919866285242	0	0
-4.271293971675143	0.73671159973013989	0	0
-2.8846150000000064	1.7663172632612213e-016	0	0
-0.64188722390440001	2.8122916793983714	0	0
-1.2515875421146012	2.598948310884337	0	0
-1.7985280347887369	2.2552828217995162	0	0
-2.2552828217995224	1.7985280347887309	0	0
-2.5989483108843436	1.2515875421145946	0	0
-2.8122916793983777	0.64188722390439357	0	0
-4.5576917000000066	-0.057692299999999544	0	0
-4.8749993500000075	-0.21923073999999945	0	0
-6.1153838000000071	-0.2192307399999992	0	0
-4.6495583811196521	-0.29095829832291181	0	0
-4.7228230277335586	-0.29736812433886162	0	0
-6.2070584451175952	-0.54304724779063696	0	0
-6.2217891176145006	-0.33438754518133718	0	0
-4.7628681373199093	-1.062434885705573	0	0
-5.9844083603956921	-1.2778253850544705	0	0
-4.6294455200903677	-0.52084935184578551	0	0
-4.7027101667042741	-0.52725917786173526	0	0
-4.8390061742990547	-0.63063462080436583	0	0
-6.0605463973748384	-0.84602512015326348	0	0
-4.5283967635286793	-1.0939253278290715	0	0
-4.5994353009289224	-1.1129600465569549	0	0
-6.0692003727784876	-1.4097097891069963	0	0
-6.0184601151858219	-1.6126415275429602	0	0
-6.1853319484890035	-0.75109489509639304	0	0
-4.5060195864149151	-1.8733574850269756	0	0
-5.6715997010175023	-2.2975939523949065	0	0
-4.4686692995456072	-1.3168312580211392	0	0
-4.5397078369458495	-1.3358659767490224	0	0
-4.6559822446472987	-1.4613384677721075	0	0
-5.8215623592498869	-1.8855749351400382	0	0
-4.269642101757217	-1.863653989802071	0	0
-4.3362960599321232	-1.8947352409453728	0	0
-5.732202045779176	-2.4421987144382125	0	0
-5.6469939201418953	-2.6332365105168782	0	0
-5.9609365980376543	-1.8137556970589765	0	0
-4.1122579105326329	-2.6273590651304612	0	0
-5.1864623546918214	-3.2475512901304602	0	0
-4.1721148235899248	-2.0728019127702884	0	0
-4.2387687817648319	-2.1038831639135909	0	0
-4.3314886505326342	-2.2476402848695383	0	0
-5.4056930946918227	-2.8678325098695381	0	0
-3.8811565252670128	-2.5767564683493553	0	0
-3.9414006574259695	-2.6189398638199597	0	0
-5.2210336602530578	-3.4004826676434012	0	0
-5.1039466723512579	-3.5738219346007085	0	0
-5.5554212054343948	-2.8213064499710909	0	0
-3.5935473589417257	-3.301529669547794	0	0
-4.5437369741954168	-4.0988334252556466	0	0
-3.7487927499114297	-2.7657915302882903	0	0
-3.8090368820703877	-2.8079749257588946	0	0
-3.8753849656105475	-2.9656486892720713	0	0
-4.825574580864239	-3.7629524449799234	0	0
-3.3747439717165344	-3.2115655055075325	0	0
-3.4267477903888945	-3.2635693241798922	0	0
-4.5512268089306582	-4.2554446757195024	0	0
-4.4058185876428615	-4.4058185876428535	0	0
-4.9811071506827824	-3.7431332340507821	0	0
-2.9656486892720793	-3.8753849656105412	0	0
-3.7629524449799323	-4.825574580864231	0	0
-3.2115655055075401	-3.3747439717165273	0	0
-3.2635693241799002	-3.4267477903888874	0	0
-3.301529669547802	-3.5935473589417186	0	0
-4.0988334252556555	-4.5437369741954088	0	0
-2.7657915302882978	-3.7487927499114235	0	0
-2.8079749257589026	-3.809036882070381	0	0
-3.7431332340507906	-4.9811071506827744	0	0
-3.5738219346007174	-5.1039466723512499	0	0
-4.2554446757195112	-4.5512268089306502	0	0
-2.2476402848695463	-4.3314886505326271	0	0
-2.8678325098695474	-5.4056930946918156	0	0
-2.5767564683493629	-3.8811565252670057	0	0
-2.6189398638199672	-3.9414006574259632	0	0
-2.6273590651304692	-4.1122579105326258	0	0
-3.2475512901304695	-5.1864623546918152	0	0
-2.0728019127702968	-4.1721148235899177	0	0
-2.1038831639135989	-4.2387687817648256	0	0
-2.8213064499710998	-5.5554212054343877	0	0
-2.6332365105168871	-5.6469939201418882	0	0
-3.4004826676434106	-5.2210336602530489	0	0
-1.4613384677721153	-4.6559822446472925	0	0
-1.8855749351400464	-5.8215623592498797	0	0
-1.8636539898020781	-4.2696421017572099	0	0
-1.8947352409453804	-4.336296059932117	0	0
-1.8733574850269832	-4.5060195864149089	0	0
-2.2975939523949149	-5.6715997010174952	0	0
-1.316831258021147	-4.4686692995456001	0	0
-1.3358659767490304	-4.5397078369458432	0	0
-1.8137556970589854	-5.9609365980376472	0	0
-1.6126415275429691	-6.0184601151858157	0	0
-2.4421987144382213	-5.7322020457791689	0	0
-0.63063462080437371	-4.8390061742990484	0	0
-0.8460251201532718	-6.0605463973748321	0	0
-1.0939253278290795	-4.528396763528673	0	0
-1.1129600465569627	-4.5994353009289153	0	0
-1.062434885705581	-4.7628681373199022	0	0
-1.277825385054479	-5.9844083603956859	0	0
-0.52084935184579351	-4.6294455200903615	0	0
-0.52725917786174314	-4.7027101667042679	0	0
-0.75109489509640137	-6.1853319484889973	0	0
-0.54304724779064539	-6.207058445117589	0	0
-1.409709789107005	-6.0692003727784813	0	0
-0.29095829832291953	-4.6495583811196459	0	0
-0.29736812433886933	-4.7228230277335523	0	0
-0.21923074000000722	-4.8749993500000013	0	0
-0.21923074000000736	-6.1153838000000009	0	0
-0.33438754518134534	-6.2217891176144944	0	0
-4.4562585979275209	-0.95793598018097448	0	0
-4.615023409038872	-0.057692299999999384	0	0
-4.5121528813225975	-0.97069348562161439	0	0
-4.4305831089713452	-1.0704276473569092	0	0
-4.4864773923664218	-1.0831851527975491	0	0
-4.1313700820395516	-1.9255293503233735	0	0
-4.1830241670272086	-1.950404646611156	0	0
-4.0813065803549664	-2.0294872827587467	0	0
-4.1329606653426252	-2.0543625790465292	0	0
-3.5993174191390165	-2.7965686385302044	0	0
-3.6441411542092985	-2.8323143744390689	0	0
-3.5273762977474679	-2.8867799514021848	0	0
-3.572200032817749	-2.9225256873110492	0	0
-2.8867799514021915	-3.5273762977474603	0	0
-2.9225256873110563	-3.5722000328177423	0	0
-2.7965686385302106	-3.5993174191390094	0	0
-2.8323143744390755	-3.6441411542092914	0	0
-2.0294872827587529	-4.0813065803549602	0	0
-2.0543625790465363	-4.1329606653426181	0	0
-1.9255293503233795	-4.1313700820395445	0	0
-1.950404646611162	-4.1830241670272024	0	0
-1.0704276473569159	-4.4305831089713399	0	0
-1.0831851527975556	-4.4864773923664156	0	0
-0.95793598018098114	-4.4562585979275147	0	0
-0.97069348562162105	-4.5121528813225913	0	0
-0.057692300000006025	-4.5576917000000003	0	0
-0.057692300000005928	-4.6150234090388658	0	0
-7.2040554410109874e-015	-7.4999989999999999	0	0
-6.8437267193056978e-015	-4.5576917000000012	0	0
-6.4622021904412742e-015	-1.4423075000000001	0	0
-6.8560909401485263e-015	-4.6586532250000001	0	0
-4.2712939716751439	-0.73671159973013989	0	0
-4.3281374673484576	-0.23221162197408932	0	0
-2.8839190328460038	-0.5803919866285242	0	0
-2.9407625285193189	-0.075892008872473604	0	0
-2.6824637946686392	-1.2075727044140905	0	0
-4.0002699608916554	-1.6686930255841637	0	0
-2.8501439114577565	-0.72837046215117529	0	0
-4.1679500776807732	-1.1894907833212487	0	0
-2.3464986208332523	-1.7742006844158511	0	0
-3.5286557105963907	-2.5169992152801384	0	0
-2.6166071775111752	-1.3443253790474372	0	0
-3.7987642672743132	-2.0871239099117243	0	0
-1.8928702080243442	-2.2518628336841253	0	0
-2.8800999285887618	-3.2390925542485429	0	0
-2.2518628336841324	-1.8928702080243371	0	0
-3.23909255424855	-2.8800999285887552	0	0
-1.3443253790474439	-2.6166071775111686	0	0
-2.0871239099117309	-3.7987642672743069	0	0
-1.7742006844158573	-2.3464986208332452	0	0
-2.516999215280145	-3.5286557105963841	0	0
-0.72837046215118184	-2.8501439114577503	0	0
-1.1894907833212549	-4.167950077680767	0	0
-1.2075727044140967	-2.6824637946686329	0	0
-1.6686930255841699	-4.0002699608916501	0	0
-0.075892008872480154	-2.9407625285193122	0	0
-0.23221162197409592	-4.3281374673484523	0	0
-0.58039198662853053	-2.883919032845998	0	0
-0.73671159973014633	-4.2712939716751368	0	0
-6.6388339167673962e-015	-2.8846150000000002	0	0
-2.8122916793983777	-0.64188722390439357	0	0
-2.5989483108843432	-1.2515875421145948	0	0
-2.2552828217995229	-1.7985280347887307	0	0
-1.7985280347887371	-2.2552828217995158	0	0
-1.251587542114601	-2.598948310884337	0	0
-0.64188722390440001	-2.8122916793983714	0	0
0.057692299999992973	-4.5576917000000003	0	0
0.21923073999999287	-4.8749993500000013	0	0
0.21923073999999254	-6.1153838000000009	0	0
0.29095829832290521	-4.6495583811196459	0	0
0.29736812433885501	-4.7228230277335523	0	0
0.54304724779063029	-6.207058445117589	0	0
0.33438754518133051	-6.2217891176144944	0	0
1.0624348857055665	-4.7628681373199022	0	0
1.2778253850544639	-5.9844083603956859	0	0
0.52084935184577896	-4.6294455200903615	0	0
0.5272591778617286	-4.7027101667042679	0	0
0.63063462080435917	-4.8390061742990484	0	0
0.84602512015325682	-6.0605463973748321	0	0
1.093925327829065	-4.528396763528673	0	0
1.1129600465569485	-4.5994353009289153	0	0
1.4097097891069896	-6.0692003727784813	0	0
1.6126415275429535	-6.0184601151858157	0	0
0.75109489509638638	-6.1853319484889973	0	0
1.873357485026969	-4.5060195864149089	0	0
2.2975939523948998	-5.6715997010174961	0	0
1.3168312580211325	-4.4686692995456001	0	0
1.335865976749016	-4.5397078369458432	0	0
1.4613384677721009	-4.6559822446472925	0	0
1.8855749351400315	-5.8215623592498806	0	0
1.8636539898020643	-4.2696421017572108	0	0
1.8947352409453662	-4.336296059932117	0	0
2.4421987144382058	-5.7322020457791698	0	0
2.6332365105168716	-5.6469939201418891	0	0
1.8137556970589699	-5.9609365980376481	0	0
2.6273590651304546	-4.1122579105326267	0	0
3.2475512901304535	-5.1864623546918152	0	0
2.0728019127702817	-4.1721148235899186	0	0
2.1038831639135842	-4.2387687817648256	0	0
2.2476402848695316	-4.331488650532628	0	0
2.8678325098695314	-5.4056930946918156	0	0
2.5767564683493487	-3.8811565252670066	0	0
2.6189398638199526	-3.9414006574259632	0	0
3.4004826676433946	-5.2210336602530516	0	0
3.5738219346007019	-5.1039466723512517	0	0
2.8213064499710843	-5.5554212054343886	0	0
3.3015296695477874	-3.5935473589417195	0	0
4.0988334252556404	-4.5437369741954097	0	0
2.7657915302882836	-3.7487927499114235	0	0
2.807974925758888	-3.809036882070381	0	0
2.9656486892720646	-3.8753849656105412	0	0
3.7629524449799172	-4.8255745808642327	0	0
3.2115655055075258	-3.3747439717165282	0	0
3.2635693241798855	-3.4267477903888883	0	0
4.2554446757194961	-4.551226808930652	0	0
4.4058185876428473	-4.4058185876428553	0	0
3.7431332340507759	-4.9811071506827762	0	0
3.875384965610535	-2.9656486892720735	0	0
4.8255745808642247	-3.7629524449799261	0	0
3.3747439717165211	-3.2115655055075343	0	0
3.4267477903888812	-3.2635693241798944	0	0
3.5935473589417124	-3.3015296695477958	0	0