[Format]      =  1
[Precision]   =  1e-008
[MinAngle]    =  30
[DoSmartMesh] =  1
[Depth]       =  30
[LengthUnits] =  centimeters
[ProblemType] =  planar
[Coordinates] =  cartesian
[PrevSoln] = ""
[dT] = 0
[Comment]     =  "Add comments here."
[PointProps]   = 0
[BdryProps]   = 0
[BlockProps]  = 4
  <BeginBlock>
    <BlockName> = "Copper, Pure"
    <Kx> = 401
    <Ky> = 401
    <Kt> = 3
    <qv> = 0
    <TKPoints> = 6
      273	401
      473	389
      673	378
      873	366
      1073	352
      1273	336
  <EndBlock>
  <BeginBlock>
    <BlockName> = "Air"
    <Kx> = 0.018100000000000002
    <Ky> = 0.018100000000000002
    <Kt> = 3
    <qv> = 0
    <TKPoints> = 18
      200	0.018100000000000002
      250	0.0223
      300	0.026100000000000002
      350	0.029700000000000001
      400	0.033099999999999997
      450	0.036299999999999999
      500	0.0395
      550	0.042599999999999999
      600	0.045600000000000002
      700	0.051299999999999998
      800	0.056899999999999999
      900	0.0625
      1000	0.067199999999999996
      1200	0.075899999999999995
      1400	0.083500000000000005
      1600	0.090399999999999994
      1800	0.097000000000000003
      2000	0.1032
  <EndBlock>
  <BeginBlock>
    <BlockName> = "Aluminum, Pure"
    <Kx> = 236
    <Ky> = 236
    <Kt> = 3
    <qv> = 0
    <TKPoints> = 4
      273	236
      473	238
      673	228
      873	215
  <EndBlock>
  <BeginBlock>
    <BlockName> = "Núcleo"
    <Kx> = 23
    <Ky> = 23
    <Kt> = 3
    <qv> = 0
  <EndBlock>
[ConductorProps]  = 0
[NumPoints] = 666
4.6150242089763625	0.057692309999999948	0	1	0
4.55769249	0.057692310000000101	0	1	0
4.8750001950000001	0.21923077800000002	0	2	0
6.1153848600000007	0.21923077799999993	0	2	0
4.6495591870432049	0.29095834875569077	0	2	0
4.7228238463563184	0.29736817588267722	0	2	0
5.9844093976932733	1.2778256065442342	0	2	0
4.7628689628838226	1.0624350698609784	0	2	0
4.6294463225276923	0.52084944212635254	0	2	0
4.7027109818408057	0.52725926925333888	0	2	0
4.8390070130602298	0.63063473011438187	0	2	0
6.0605474478696806	0.84602526679763779	0	2	0
4.5283975484508829	1.0939255174428208	0	2	0
4.5994360981644737	1.1129602394700557	0	2	0
5.6716006840949085	2.2975943506445784	0	2	0
4.5060203674584072	1.8733578097423167	0	2	0
4.4686700741150487	1.3168314862719215	0	2	0
4.5397086238286395	1.3358662082991564	0	2	0
4.6559830516843226	1.4613387210708093	0	2	0
5.8215633683208239	1.885575261973071	0	2	0
4.269642841828607	1.8636543128354726	0	2	0
4.336296811556867	1.894735569366192	0	2	0
5.1864632536787427	3.2475518530394263	0	2	0
4.1122586233240925	2.6273595205394265	0	2	0
4.2387695164848447	2.1038835285867212	0	2	0
4.1721155467565838	2.0728022720560015	0	2	0
5.4056940316787436	2.8678330069605735	0	2	0
4.3314894013240934	2.2476406744605733	0	2	0
3.8811571980008934	2.5767569149872029	0	2	0
3.9414013406021682	2.6189403177695967	0	2	0
4.5437377617765895	4.0988341357202023	0	2	0
3.593547981823344	3.3015302418130132	0	2	0
3.7487933997022531	2.7657920096922197	0	2	0
3.8090375423035283	2.8079754124746135	0	2	0
4.8255754172972702	3.7629530972251013	0	2	0
3.8753856373440247	2.9656492033179127	0	2	0
3.4267483843585835	3.2635698898653174	0	2	0
3.3747445566722272	3.211566062178961	0	2	0
3.7629530972251022	4.8255754172972702	0	2	0
2.9656492033179136	3.8753856373440247	0	2	0
3.2115660621789615	3.3747445566722272	0	2	0
3.2635698898653183	3.4267483843585835	0	2	0
3.3015302418130141	3.593547981823344	0	2	0
4.0988341357202032	4.5437377617765895	0	2	0
2.7657920096922202	3.7487933997022531	0	2	0
2.8079754124746144	3.8090375423035283	0	2	0
2.8678330069605749	5.4056940316787436	0	2	0
2.2476406744605737	4.3314894013240925	0	2	0
2.6189403177695976	3.9414013406021682	0	2	0
2.5767569149872034	3.8811571980008925	0	2	0
3.2475518530394276	5.1864632536787427	0	2	0
2.6273595205394273	4.1122586233240916	0	2	0
2.0728022720560029	4.1721155467565829	0	2	0
2.1038835285867221	4.2387695164848447	0	2	0
1.4613387210708098	4.6559830516843226	0	2	0
1.8855752619730715	5.821563368320823	0	2	0
1.8636543128354726	4.2696428418286061	0	2	0
1.8947355693661925	4.336296811556867	0	2	0
1.8733578097423171	4.5060203674584072	0	2	0
2.2975943506445788	5.6716006840949076	0	2	0
1.3168314862719219	4.4686700741150478	0	2	0
1.3358662082991568	4.5397086238286395	0	2	0
0.63063473011438231	4.8390070130602298	0	2	0
0.84602526679763845	6.0605474478696806	0	2	0
1.1129602394700562	4.5994360981644737	0	2	0
1.0939255174428213	4.5283975484508829	0	2	0
1.2778256065442348	5.9844093976932733	0	2	0
1.0624350698609788	4.7628689628838226	0	2	0
0.52084944212635287	4.6294463225276923	0	2	0
0.52725926925333921	4.7027109818408057	0	2	0
0.2909583487556911	4.6495591870432049	0	2	0
0.29736817588267755	4.7228238463563184	0	2	0
0.21923077800000032	6.1153848600000007	0	2	0
0.21923077800000035	4.8750001950000001	0	2	0
4.4562593703457747	0.95793614622323375	0	1	0
4.5121536634291948	0.97069365387517481	0	1	0
4.4864781700225995	1.0831853405496679	0	1	0
4.4305838769391794	1.0704278328977266	0	1	0
4.1830248920848208	1.95040498468134	0	1	0
4.1313707981437879	1.925529684081839	0	1	0
4.0813072877815282	2.0294876345365895	0	1	0
4.1329613817225628	2.0543629351360906	0	1	0
3.5993180430207787	2.7965691232688332	0	1	0
3.6441417858605094	2.8323148653736263	0	1	0
3.5722006519991631	2.922526193882236	0	1	0
3.5273769091594338	2.8867804517774434	0	1	0
2.922526193882236	3.572200651999164	0	1	0
2.8867804517774429	3.5273769091594334	0	1	0
2.8323148653736259	3.6441417858605094	0	1	0
2.7965691232688323	3.5993180430207787	0	1	0
2.0543629351360906	4.1329613817225619	0	1	0
2.0294876345365886	4.0813072877815282	0	1	0
1.9255296840818379	4.131370798143787	0	1	0
1.9504049846813389	4.1830248920848208	0	1	0
1.0704278328977259	4.4305838769391803	0	1	0
1.0831853405496668	4.4864781700226004	0	1	0
0.95793614622323287	4.4562593703457747	0	1	0
0.97069365387517403	4.5121536634291948	0	1	0
0.057692309999999178	4.55769249	0	1	0
0.057692309999999074	4.6150242089763625	0	1	0
4.5576924900000018	0	0	0	0
0	4.5576924900000009	0	0	0
4.2712947120328577	0.73671172742683466	0	1	0
2.8839195327253631	0.5803920872298155	0	1	0
2.9407630382515522	0.075892022027090583	0	1	0
4.3281382175590455	0.23221166222410966	0	1	0
4.0002706542718682	1.6686933148243268	0	1	0
2.6824642596290857	1.2075729137267208	0	1	0
4.167950800125543	1.189490989499679	0	1	0
2.8501444054827605	0.72837058840207247	0	1	0
3.5286563222301219	2.5169996515600608	0	1	0
2.3464990275597275	1.7742009919440107	0	1	0
3.7987649257268674	2.0871242716799174	0	1	0
2.6166076310564734	1.3443256120638676	0	1	0
2.8801004278061426	3.2390931156913276	0	1	0
1.8928705361218841	2.2518632240070691	0	1	0
3.2390931156913276	2.8801004278061431	0	1	0
2.2518632240070691	1.8928705361218841	0	1	0
2.087124271679917	3.7987649257268674	0	1	0
1.3443256120638671	2.616607631056473	0	1	0
2.5169996515600603	3.5286563222301224	0	1	0
1.7742009919440105	2.3464990275597275	0	1	0
1.1894909894996779	4.167950800125543	0	1	0
0.72837058840207214	2.8501444054827605	0	1	0
1.6686933148243261	4.0002706542718682	0	1	0
1.2075729137267199	2.6824642596290857	0	1	0
0.23221166222410894	4.3281382175590464	0	1	0
0.075892022027090125	2.9407630382515517	0	1	0
0.58039208722981506	2.8839195327253635	0	1	0
0.73671172742683388	4.2712947120328568	0	1	0
-0.057692309999999664	4.6150242089763625	0	1	0
-0.057692309999999816	4.55769249	0	1	0
-0.21923077799999971	4.8750001950000001	0	2	0
-0.21923077799999954	6.1153848600000007	0	2	0
-0.29095834875569049	4.6495591870432049	0	2	0
-0.29736817588267689	4.7228238463563184	0	2	0
-1.2778256065442337	5.9844093976932733	0	2	0
-1.0624350698609781	4.7628689628838226	0	2	0
-0.5208494421263522	4.6294463225276923	0	2	0
-0.52725926925333855	4.7027109818408057	0	2	0
-0.63063473011438154	4.8390070130602298	0	2	0
-0.84602526679763745	6.0605474478696806	0	2	0
-1.0939255174428206	4.5283975484508829	0	2	0
-1.1129602394700555	4.5994360981644737	0	2	0
-2.297594350644578	5.6716006840949085	0	2	0
-1.8733578097423162	4.5060203674584072	0	2	0
-1.3168314862719213	4.4686700741150487	0	2	0
-1.3358662082991561	4.5397086238286395	0	2	0
-1.4613387210708093	4.6559830516843226	0	2	0
-1.8855752619730708	5.8215633683208239	0	2	0
-1.8636543128354721	4.269642841828607	0	2	0
-1.8947355693661916	4.336296811556867	0	2	0
-3.2475518530394258	5.1864632536787427	0	2	0
-2.6273595205394265	4.1122586233240925	0	2	0
-2.1038835285867208	4.2387695164848447	0	2	0
-2.0728022720560011	4.1721155467565838	0	2	0
-2.8678330069605731	5.4056940316787436	0	2	0
-2.2476406744605728	4.3314894013240934	0	2	0
-2.5767569149872025	3.8811571980008934	0	2	0
-2.6189403177695962	3.9414013406021682	0	2	0
-4.0988341357202023	4.5437377617765895	0	2	0
-3.3015302418130128	3.593547981823344	0	2	0
-2.7657920096922193	3.7487933997022531	0	2	0
-2.807975412474613	3.8090375423035283	0	2	0
-3.7629530972251013	4.8255754172972702	0	2	0
-2.9656492033179123	3.8753856373440247	0	2	0
-3.2635698898653169	3.4267483843585835	0	2	0
-3.211566062178961	3.3747445566722272	0	2	0
-4.8255754172972702	3.7629530972251022	0	2	0
-3.8753856373440247	2.965649203317914	0	2	0
-3.3747445566722272	3.2115660621789619	0	2	0
-3.4267483843585835	3.2635698898653187	0	2	0
-3.593547981823344	3.3015302418130141	0	2	0
-4.5437377617765895	4.0988341357202032	0	2	0
-3.7487933997022531	2.7657920096922206	0	2	0
-3.8090375423035283	2.8079754124746148	0	2	0
-5.4056940316787436	2.8678330069605749	0	2	0
-4.3314894013240925	2.2476406744605741	0	2	0
-3.9414013406021682	2.618940317769598	0	2	0
-3.8811571980008925	2.5767569149872038	0	2	0
-5.1864632536787427	3.2475518530394281	0	2	0
-4.1122586233240916	2.6273595205394278	0	2	0
-4.1721155467565829	2.0728022720560029	0	2	0
-4.2387695164848447	2.1038835285867226	0	2	0
-4.6559830516843226	1.46133872107081	0	2	0
-5.821563368320823	1.8855752619730719	0	2	0
-4.2696428418286061	1.8636543128354728	0	2	0
-4.336296811556867	1.8947355693661929	0	2	0
-4.5060203674584072	1.8733578097423176	0	2	0
-5.6716006840949076	2.2975943506445793	0	2	0
-4.4686700741150478	1.3168314862719221	0	2	0
-4.5397086238286395	1.335866208299157	0	2	0
-4.8390070130602298	0.63063473011438254	0	2	0
-6.0605474478696806	0.84602526679763879	0	2	0
-4.5994360981644737	1.1129602394700564	0	2	0
-4.5283975484508829	1.0939255174428215	0	2	0
-5.9844093976932733	1.277825606544235	0	2	0
-4.7628689628838226	1.0624350698609788	0	2	0
-4.6294463225276923	0.5208494421263532	0	2	0
-4.7027109818408057	0.52725926925333955	0	2	0
-4.6495591870432049	0.29095834875569138	0	2	0
-4.7228238463563184	0.29736817588267783	0	2	0
-6.1153848600000007	0.21923077800000068	0	2	0
-4.8750001950000001	0.21923077800000065	0	2	0
-0.95793614622323353	4.4562593703457747	0	1	0
-0.97069365387517459	4.5121536634291948	0	1	0
-1.0831853405496676	4.4864781700225995	0	1	0
-1.0704278328977266	4.4305838769391794	0	1	0
-1.9504049846813396	4.1830248920848208	0	1	0
-1.9255296840818386	4.1313707981437879	0	1	0
-2.0294876345365891	4.0813072877815282	0	1	0
-2.0543629351360901	4.1329613817225628	0	1	0
-2.7965691232688328	3.5993180430207787	0	1	0
-2.8323148653736259	3.6441417858605094	0	1	0
-2.9225261938822356	3.5722006519991631	0	1	0
-2.8867804517774429	3.5273769091594338	0	1	0
-3.572200651999164	2.9225261938822364	0	1	0
-3.5273769091594334	2.8867804517774434	0	1	0
-3.6441417858605094	2.8323148653736263	0	1	0
-3.5993180430207787	2.7965691232688328	0	1	0
-4.1329613817225619	2.054362935136091	0	1	0
-4.0813072877815282	2.0294876345365891	0	1	0
-4.131370798143787	1.9255296840818381	0	1	0
-4.1830248920848208	1.9504049846813392	0	1	0
-4.4305838769391803	1.0704278328977261	0	1	0
-4.4864781700226004	1.083185340549667	0	1	0
-4.4562593703457747	0.95793614622323309	0	1	0
-4.5121536634291948	0.97069365387517426	0	1	0
-4.55769249	0.057692309999999455	0	1	0
-4.6150242089763625	0.057692309999999358	0	1	0
-4.5576924900000009	2.7907817596882155e-016	0	0	0
-0.73671172742683433	4.2712947120328577	0	1	0
-0.58039208722981528	2.8839195327253631	0	1	0
-0.075892022027090403	2.9407630382515522	0	1	0
-0.23221166222410938	4.3281382175590455	0	1	0
-1.6686933148243266	4.0002706542718682	0	1	0
-1.2075729137267206	2.6824642596290857	0	1	0
-1.1894909894996788	4.167950800125543	0	1	0
-0.72837058840207236	2.8501444054827605	0	1	0
-2.5169996515600603	3.5286563222301219	0	1	0
-1.7742009919440107	2.3464990275597275	0	1	0
-2.087124271679917	3.7987649257268674	0	1	0
-1.3443256120638674	2.6166076310564734	0	1	0
-3.2390931156913276	2.8801004278061426	0	1	0
-2.2518632240070691	1.8928705361218841	0	1	0
-2.8801004278061431	3.2390931156913276	0	1	0
-1.8928705361218841	2.2518632240070691	0	1	0
-3.7987649257268674	2.0871242716799174	0	1	0
-2.616607631056473	1.3443256120638674	0	1	0
-3.5286563222301224	2.5169996515600608	0	1	0
-2.3464990275597275	1.7742009919440107	0	1	0
-4.167950800125543	1.1894909894996781	0	1	0
-2.8501444054827605	0.72837058840207236	0	1	0
-4.0002706542718682	1.6686933148243264	0	1	0
-2.6824642596290857	1.2075729137267202	0	1	0
-4.3281382175590464	0.23221166222410919	0	1	0
-2.9407630382515517	0.075892022027090306	0	1	0
-2.8839195327253635	0.58039208722981528	0	1	0
-4.2712947120328568	0.73671172742683411	0	1	0
-4.6150242089763625	-0.057692309999999379	0	1	0
-4.55769249	-0.057692309999999539	0	1	0
-4.8750001950000001	-0.21923077799999943	0	2	0
-6.1153848600000007	-0.21923077799999918	0	2	0
-4.6495591870432049	-0.29095834875569021	0	2	0
-4.7228238463563184	-0.29736817588267667	0	2	0
-5.9844093976932733	-1.2778256065442333	0	2	0
-4.7628689628838226	-1.0624350698609777	0	2	0
-4.6294463225276923	-0.52084944212635187	0	2	0
-4.7027109818408057	-0.52725926925333821	0	2	0
-4.8390070130602298	-0.6306347301143812	0	2	0
-6.0605474478696806	-0.84602526679763712	0	2	0
-4.5283975484508829	-1.0939255174428202	0	2	0
-4.5994360981644737	-1.1129602394700553	0	2	0
-5.6716006840949085	-2.2975943506445775	0	2	0
-4.5060203674584072	-1.8733578097423162	0	2	0
-4.4686700741150487	-1.3168314862719208	0	2	0
-4.5397086238286395	-1.3358662082991557	0	2	0
-4.6559830516843226	-1.4613387210708089	0	2	0
-5.8215633683208239	-1.8855752619730703	0	2	0
-4.269642841828607	-1.8636543128354721	0	2	0
-4.336296811556867	-1.8947355693661916	0	2	0
-5.1864632536787427	-3.2475518530394254	0	2	0
-4.1122586233240925	-2.6273595205394265	0	2	0
-4.2387695164848447	-2.1038835285867208	0	2	0
-4.1721155467565838	-2.0728022720560011	0	2	0
-5.4056940316787436	-2.8678330069605726	0	2	0
-4.3314894013240934	-2.2476406744605728	0	2	0
-3.8811571980008934	-2.5767569149872025	0	2	0
-3.9414013406021682	-2.6189403177695962	0	2	0
-4.5437377617765904	-4.0988341357202014	0	2	0
-3.5935479818233445	-3.3015302418130128	0	2	0
-3.7487933997022531	-2.7657920096922193	0	2	0
-3.8090375423035283	-2.807975412474613	0	2	0
-4.8255754172972711	-3.7629530972251004	0	2	0
-3.8753856373440247	-2.9656492033179123	0	2	0
-3.426748384358584	-3.2635698898653169	0	2	0
-3.3747445566722276	-3.211566062178961	0	2	0
-3.7629530972251031	-4.8255754172972694	0	2	0
-2.965649203317914	-3.8753856373440247	0	2	0
-3.2115660621789619	-3.3747445566722267	0	2	0
-3.2635698898653187	-3.4267483843585831	0	2	0
-3.3015302418130141	-3.5935479818233436	0	2	0
-4.0988341357202041	-4.5437377617765886	0	2	0
-2.7657920096922206	-3.7487933997022531	0	2	0
-2.8079754124746148	-3.8090375423035283	0	2	0
-2.8678330069605753	-5.4056940316787436	0	2	0
-2.2476406744605741	-4.3314894013240925	0	2	0
-2.618940317769598	-3.9414013406021682	0	2	0
-2.5767569149872038	-3.8811571980008925	0	2	0
-3.2475518530394281	-5.1864632536787427	0	2	0
-2.6273595205394278	-4.1122586233240916	0	2	0
-2.0728022720560029	-4.1721155467565829	0	2	0
-2.1038835285867226	-4.2387695164848447	0	2	0
-1.4613387210708104	-4.6559830516843226	0	2	0
-1.8855752619730723	-5.821563368320823	0	2	0
-1.8636543128354728	-4.2696428418286061	0	2	0
-1.8947355693661929	-4.336296811556867	0	2	0
-1.8733578097423176	-4.5060203674584072	0	2	0
-2.2975943506445797	-5.6716006840949076	0	2	0
-1.3168314862719224	-4.4686700741150478	0	2	0
-1.3358662082991575	-4.5397086238286395	0	2	0
-0.63063473011438287	-4.8390070130602298	0	2	0
-0.84602526679763912	-6.0605474478696806	0	2	0
-1.1129602394700568	-4.5994360981644737	0	2	0
-1.093925517442822	-4.5283975484508829	0	2	0
-1.2778256065442355	-5.9844093976932733	0	2	0
-1.0624350698609792	-4.7628689628838226	0	2	0
-0.52084944212635353	-4.6294463225276923	0	2	0
-0.52725926925333988	-4.7027109818408057	0	2	0
-0.29095834875569165	-4.6495591870432049	0	2	0
-0.29736817588267811	-4.7228238463563184	0	2	0
-0.21923077800000104	-6.1153848600000007	0	2	0
-0.21923077800000093	-4.8750001950000001	0	2	0
-4.4562593703457747	-0.95793614622323309	0	1	0
-4.5121536634291948	-0.97069365387517426	0	1	0
-4.4864781700225995	-1.0831853405496672	0	1	0
-4.4305838769391794	-1.0704278328977261	0	1	0
-4.1830248920848208	-1.9504049846813396	0	1	0
-4.1313707981437879	-1.9255296840818386	0	1	0
-4.0813072877815282	-2.0294876345365891	0	1	0
-4.1329613817225628	-2.0543629351360901	0	1	0
-3.5993180430207792	-2.7965691232688328	0	1	0
-3.6441417858605094	-2.8323148653736259	0	1	0
-3.5722006519991636	-2.9225261938822356	0	1	0
-3.5273769091594342	-2.8867804517774429	0	1	0
-2.9225261938822364	-3.5722006519991636	0	1	0
-2.8867804517774434	-3.5273769091594334	0	1	0
-2.8323148653736263	-3.644141785860509	0	1	0
-2.7965691232688328	-3.5993180430207783	0	1	0
-2.054362935136091	-4.1329613817225619	0	1	0
-2.0294876345365891	-4.0813072877815282	0	1	0
-1.9255296840818381	-4.131370798143787	0	1	0
-1.9504049846813392	-4.1830248920848208	0	1	0
-1.0704278328977266	-4.4305838769391803	0	1	0
-1.0831853405496674	-4.4864781700226004	0	1	0
-0.95793614622323353	-4.4562593703457747	0	1	0
-0.97069365387517459	-4.5121536634291948	0	1	0
-0.057692309999999733	-4.55769249	0	1	0
-0.057692309999999636	-4.6150242089763625	0	1	0
-5.581563519376431e-016	-4.5576924900000009	0	0	0
-4.2712947120328577	-0.73671172742683411	0	1	0
-2.8839195327253631	-0.58039208722981528	0	1	0
-2.9407630382515522	-0.075892022027090222	0	1	0
-4.3281382175590455	-0.23221166222410913	0	1	0
-4.0002706542718682	-1.6686933148243266	0	1	0
-2.6824642596290857	-1.2075729137267204	0	1	0
-4.167950800125543	-1.1894909894996786	0	1	0
-2.8501444054827605	-0.72837058840207225	0	1	0
-3.5286563222301224	-2.5169996515600603	0	1	0
-2.3464990275597279	-1.7742009919440107	0	1	0
-3.7987649257268674	-2.087124271679917	0	1	0
-2.6166076310564734	-1.3443256120638671	0	1	0
-2.8801004278061431	-3.2390931156913272	0	1	0
-1.8928705361218843	-2.2518632240070686	0	1	0
-3.2390931156913281	-2.8801004278061426	0	1	0
-2.2518632240070695	-1.8928705361218836	0	1	0
-2.0871242716799174	-3.7987649257268674	0	1	0
-1.3443256120638676	-2.616607631056473	0	1	0
-2.5169996515600608	-3.5286563222301219	0	1	0
-1.7742009919440107	-2.3464990275597271	0	1	0
-1.1894909894996784	-4.167950800125543	0	1	0
-0.72837058840207236	-2.8501444054827605	0	1	0
-1.6686933148243266	-4.0002706542718682	0	1	0
-1.2075729137267204	-2.6824642596290857	0	1	0
-0.23221166222410944	-4.3281382175590464	0	1	0
-0.075892022027090486	-2.9407630382515517	0	1	0
-0.58039208722981528	-2.8839195327253635	0	1	0
-0.73671172742683433	-4.2712947120328568	0	1	0
0.057692309999999102	-4.6150242089763625	0	1	0
0.057692309999999261	-4.55769249	0	1	0
0.21923077799999913	-4.8750001950000001	0	2	0
0.21923077799999879	-6.1153848600000007	0	2	0
0.29095834875568993	-4.6495591870432049	0	2	0
0.29736817588267633	-4.7228238463563184	0	2	0
1.2778256065442328	-5.9844093976932733	0	2	0
1.0624350698609775	-4.7628689628838226	0	2	0
0.52084944212635154	-4.6294463225276923	0	2	0
0.52725926925333788	-4.7027109818408057	0	2	0
0.63063473011438098	-4.8390070130602298	0	2	0
0.84602526679763668	-6.0605474478696806	0	2	0
1.09392551744282	-4.5283975484508829	0	2	0
1.1129602394700551	-4.5994360981644737	0	2	0
2.2975943506445775	-5.6716006840949085	0	2	0
1.8733578097423158	-4.5060203674584072	0	2	0
1.3168314862719206	-4.4686700741150487	0	2	0
1.3358662082991555	-4.5397086238286395	0	2	0
1.4613387210708086	-4.6559830516843226	0	2	0
1.8855752619730699	-5.8215633683208239	0	2	0
1.8636543128354717	-4.269642841828607	0	2	0
1.8947355693661911	-4.336296811556867	0	2	0
3.247551853039425	-5.1864632536787427	0	2	0
2.627359520539426	-4.1122586233240925	0	2	0
2.1038835285867203	-4.2387695164848447	0	2	0
2.0728022720560006	-4.1721155467565838	0	2	0
2.8678330069605722	-5.4056940316787436	0	2	0
2.2476406744605724	-4.3314894013240934	0	2	0
2.5767569149872021	-3.8811571980008934	0	2	0
2.6189403177695958	-3.9414013406021682	0	2	0
4.0988341357202014	-4.5437377617765904	0	2	0
3.3015302418130124	-3.5935479818233445	0	2	0
2.7657920096922188	-3.7487933997022531	0	2	0
2.8079754124746126	-3.8090375423035283	0	2	0
3.7629530972251004	-4.8255754172972711	0	2	0
2.9656492033179118	-3.8753856373440247	0	2	0
3.2635698898653165	-3.426748384358584	0	2	0
3.2115660621789606	-3.3747445566722276	0	2	0
4.8255754172972694	-3.7629530972251031	0	2	0
3.8753856373440247	-2.9656492033179145	0	2	0
3.3747445566722267	-3.2115660621789623	0	2	0
3.4267483843585831	-3.2635698898653192	0	2	0
3.5935479818233436	-3.3015302418130146	0	2	0
4.5437377617765886	-4.0988341357202041	0	2	0
3.7487933997022531	-2.7657920096922211	0	2	0
3.8090375423035283	-2.8079754124746148	0	2	0
5.4056940316787436	-2.8678330069605757	0	2	0
4.3314894013240925	-2.2476406744605746	0	2	0
3.9414013406021682	-2.618940317769598	0	2	0
3.8811571980008925	-2.5767569149872043	0	2	0
5.1864632536787427	-3.2475518530394285	0	2	0
4.1122586233240916	-2.6273595205394282	0	2	0
4.1721155467565829	-2.0728022720560033	0	2	0
4.2387695164848447	-2.103883528586723	0	2	0
4.6559830516843226	-1.4613387210708106	0	2	0
5.821563368320823	-1.8855752619730728	0	2	0
4.2696428418286061	-1.8636543128354732	0	2	0
4.336296811556867	-1.8947355693661931	0	2	0
4.5060203674584072	-1.8733578097423178	0	2	0
5.6716006840949076	-2.2975943506445802	0	2	0
4.4686700741150478	-1.3168314862719226	0	2	0
4.5397086238286395	-1.3358662082991577	0	2	0
4.8390070130602298	-0.6306347301143832	0	2	0
6.0605474478696806	-0.84602526679763956	0	2	0
4.5994360981644737	-1.1129602394700571	0	2	0
4.5283975484508829	-1.0939255174428222	0	2	0
5.9844093976932733	-1.2778256065442359	0	2	0
4.7628689628838226	-1.0624350698609795	0	2	0
4.6294463225276923	-0.52084944212635387	0	2	0
4.7027109818408057	-0.52725926925334021	0	2	0
4.6495591870432049	-0.29095834875569193	0	2	0
4.7228238463563184	-0.29736817588267839	0	2	0
6.1153848600000007	-0.21923077800000143	0	2	0
4.8750001950000001	-0.21923077800000124	0	2	0
0.95793614622323287	-4.4562593703457747	0	1	0
0.97069365387517403	-4.5121536634291948	0	1	0
1.083185340549667	-4.4864781700225995	0	1	0
1.0704278328977259	-4.4305838769391794	0	1	0
1.9504049846813392	-4.1830248920848208	0	1	0
1.9255296840818381	-4.1313707981437879	0	1	0
2.0294876345365886	-4.0813072877815282	0	1	0
2.0543629351360897	-4.1329613817225628	0	1	0
2.7965691232688323	-3.5993180430207792	0	1	0
2.8323148653736254	-3.6441417858605094	0	1	0
2.9225261938822351	-3.5722006519991636	0	1	0
2.8867804517774425	-3.5273769091594342	0	1	0
3.5722006519991636	-2.9225261938822369	0	1	0
3.5273769091594334	-2.8867804517774438	0	1	0
3.644141785860509	-2.8323148653736268	0	1	0
3.5993180430207783	-2.7965691232688332	0	1	0
4.1329613817225619	-2.0543629351360915	0	1	0
4.0813072877815282	-2.0294876345365895	0	1	0
4.131370798143787	-1.9255296840818386	0	1	0
4.1830248920848208	-1.9504049846813396	0	1	0
4.4305838769391803	-1.0704278328977266	0	1	0
4.4864781700226004	-1.0831853405496676	0	1	0
4.4562593703457747	-0.95793614622323375	0	1	0
4.5121536634291948	-0.97069365387517481	0	1	0
4.55769249	-0.057692310000000024	0	1	0
4.6150242089763625	-0.05769230999999992	0	1	0
0.73671172742683388	-4.2712947120328577	0	1	0
0.58039208722981506	-2.8839195327253631	0	1	0
0.075892022027090042	-2.9407630382515522	0	1	0
0.23221166222410888	-4.3281382175590455	0	1	0
1.6686933148243264	-4.0002706542718682	0	1	0
1.2075729137267202	-2.6824642596290857	0	1	0
1.1894909894996784	-4.167950800125543	0	1	0
0.72837058840207203	-2.8501444054827605	0	1	0
2.5169996515600599	-3.5286563222301224	0	1	0
1.7742009919440105	-2.3464990275597279	0	1	0
2.0871242716799165	-3.7987649257268674	0	1	0
1.3443256120638669	-2.6166076310564734	0	1	0
3.2390931156913272	-2.8801004278061431	0	1	0
2.2518632240070686	-1.8928705361218843	0	1	0
2.8801004278061426	-3.2390931156913281	0	1	0
1.8928705361218836	-2.2518632240070695	0	1	0
3.7987649257268674	-2.0871242716799174	0	1	0
2.616607631056473	-1.3443256120638678	0	1	0
3.5286563222301219	-2.5169996515600612	0	1	0
2.3464990275597271	-1.7742009919440107	0	1	0
4.167950800125543	-1.1894909894996786	0	1	0
2.8501444054827605	-0.72837058840207258	0	1	0
4.0002706542718682	-1.6686933148243266	0	1	0
2.6824642596290857	-1.2075729137267206	0	1	0
4.3281382175590464	-0.23221166222410972	0	1	0
2.9407630382515517	-0.075892022027090666	0	1	0
2.8839195327253635	-0.5803920872298155	0	1	0
4.2712947120328568	-0.73671172742683466	0	1	0
1.4423077500000001	0	0	1	0
8.8315878471146053e-017	1.4423077499999999	0	1	0
6.2217901960580848	0.3343876031418534	0	2	0
6.2070595210078618	0.54304734191883985	0	2	0
6.069201424773353	1.4097100334567265	0	2	0
6.0184611583857084	1.6126418070675299	0	2	0
6.1853330206133439	0.75109502528619299	0	2	0
5.7322030393609893	2.4421991377527132	0	2	0
5.6469948989542988	2.633236966944601	0	2	0
5.9609376312667957	1.81375601144334	0	2	0
5.2210345652323387	3.4004832570604777	0	2	0
5.1039475570354593	3.5738225540632618	0	2	0
5.555422168374192	2.821306938997608	0	2	0
4.5512275978100689	4.255445413330011	0	2	0
4.4058193513181774	4.4058193513181774	0	2	0
4.9811080140747963	3.7431338828606289	0	2	0
3.7431338828606306	4.9811080140747954	0	2	0
3.5738225540632609	5.1039475570354584	0	2	0
4.2554454133300128	4.5512275978100707	0	2	0
2.8213069389976098	5.5554221683741911	0	2	0
2.6332369669446014	5.6469948989542988	0	2	0
3.4004832570604768	5.2210345652323378	0	2	0
1.8137560114433413	5.9609376312667957	0	2	0
1.612641807067531	6.0184611583857075	0	2	0
2.4421991377527141	5.7322030393609884	0	2	0
0.7510950252861941	6.1853330206133439	0	2	0
0.54304734191884074	6.2070595210078618	0	2	0
1.4097100334567272	6.069201424773353	0	2	0
3.8133719722312374e-016	4.6586540325000003	0	2	0
0.33438760314185323	6.2217901960580848	0	2	0
7.5000002999999982	0	0	2	0
3.482203322008252e-016	7.5000003	0	2	0
4.6586540324999994	7.185824163999304e-016	0	2	0
2.8846154999999998	5.377642775528102e-017	0	1	0
3.2092384305570931e-017	2.8846154999999998	0	1	0
2.8122921668623269	0.64188733516486074	0	1	0
2.5989487613687703	1.2515877590564646	0	1	0
2.2552832127152569	1.7985283465336317	0	1	0
1.7985283465336315	2.2552832127152569	0	1	0
1.2515877590564639	2.5989487613687707	0	1	0
0.64188733516486018	2.8122921668623269	0	1	0
-1.4423077499999999	1.7663175694229211e-016	0	1	0
-0.33438760314185256	6.2217901960580848	0	2	0
-0.54304734191883908	6.2070595210078618	0	2	0
-1.4097100334567247	6.069201424773353	0	2	0
-1.6126418070675297	6.0184611583857084	0	2	0
-0.75109502528619188	6.1853330206133439	0	2	0
-2.4421991377527124	5.7322030393609893	0	2	0
-2.6332369669446005	5.6469948989542988	0	2	0
-1.8137560114433398	5.9609376312667957	0	2	0
-3.4004832570604773	5.2210345652323387	0	2	0
-3.5738225540632604	5.1039475570354593	0	2	0
-2.8213069389976084	5.555422168374192	0	2	0
-4.2554454133300119	4.5512275978100689	0	2	0
-4.4058193513181756	4.4058193513181774	0	2	0
-3.7431338828606302	4.9811080140747954	0	2	0
-4.9811080140747963	3.7431338828606302	0	2	0
-5.1039475570354584	3.57382255406326	0	2	0
-4.5512275978100707	4.2554454133300119	0	2	0
-5.5554221683741893	2.8213069389976111	0	2	0
-5.6469948989542971	2.6332369669446032	0	2	0
-5.2210345652323378	3.4004832570604782	0	2	0
-5.9609376312667948	1.8137560114433422	0	2	0
-6.0184611583857084	1.6126418070675304	0	2	0
-5.7322030393609884	2.4421991377527141	0	2	0
-6.1853330206133439	0.7510950252861972	0	2	0
-6.2070595210078618	0.54304734191883985	0	2	0
-6.069201424773353	1.4097100334567265	0	2	0
-4.6586540325000003	-1.1247047474165186e-015	0	2	0
-6.2217901960580848	0.33438760314185151	0	2	0
-7.5000003	9.1848513609991897e-016	0	2	0
-2.8846154999999998	2.0469737016526324e-016	0	1	0
-0.64188733516486052	2.8122921668623269	0	1	0
-1.2515877590564644	2.5989487613687703	0	1	0
-1.7985283465336317	2.2552832127152569	0	1	0
-2.2552832127152569	1.7985283465336317	0	1	0
-2.5989487613687707	1.2515877590564641	0	1	0
-2.8122921668623269	0.64188733516486041	0	1	0
-2.6494763541343808e-016	-1.4423077499999997	0	1	0
-6.2217901960580857	-0.33438760314185062	0	2	0
-6.2070595210078618	-0.5430473419188413	0	2	0
-6.069201424773353	-1.4097100334567256	0	2	0
-6.0184611583857084	-1.6126418070675304	0	2	0
-6.1853330206133439	-0.75109502528619432	0	2	0
-5.7322030393609893	-2.4421991377527128	0	2	0
-5.6469948989543006	-2.6332369669445979	0	2	0
-5.9609376312667965	-1.813756011443336	0	2	0
-5.2210345652323396	-3.4004832570604768	0	2	0
-5.1039475570354602	-3.5738225540632591	0	2	0
-5.5554221683741902	-2.821306938997608	0	2	0
-4.5512275978100716	-4.2554454133300084	0	2	0
-4.4058193513181774	-4.4058193513181756	0	2	0
-4.9811080140747999	-3.7431338828606253	0	2	0
-3.7431338828606329	-4.9811080140747936	0	2	0
-3.5738225540632622	-5.1039475570354558	0	2	0
-4.2554454133300164	-4.5512275978100662	0	2	0
-2.8213069389976098	-5.5554221683741911	0	2	0
-2.6332369669446019	-5.646994898954298	0	2	0
-3.4004832570604808	-5.2210345652323351	0	2	0
-1.8137560114433429	-5.9609376312667948	0	2	0
-1.6126418070675368	-6.0184611583857066	0	2	0
-2.4421991377527172	-5.7322030393609875	0	2	0
-0.75109502528619521	-6.1853330206133439	0	2	0
-0.54304734191884063	-6.2070595210078618	0	2	0
-1.4097100334567354	-6.0692014247733512	0	2	0
-3.575827272717039e-015	-4.6586540325000003	0	2	0
-0.33438760314185478	-6.2217901960580848	0	2	0
3.9862913525037192e-016	-7.5000003000000008	0	2	0
-3.3480163086352377e-016	-2.8846154999999998	0	1	0
-2.8122921668623269	-0.64188733516486041	0	1	0
-2.5989487613687703	-1.2515877590564641	0	1	0
-2.2552832127152573	-1.7985283465336315	0	1	0
-1.7985283465336317	-2.2552832127152564	0	1	0
-1.2515877590564641	-2.5989487613687707	0	1	0
-0.64188733516486063	-2.8122921668623269	0	1	0
0.33438760314184995	-6.2217901960580848	0	2	0